*SPEF "ieee 1481-1999"
*DESIGN "counter_16b"
*DATE "11:11:11 Fri 11 11, 1111"
*VENDOR "OpenRCX"
*PROGRAM "Parallel Extraction"
*VERSION "1.0"
*DESIGN_FLOW "NAME_SCOPE LOCAL" "PIN_CAP NONE"
*DIVIDER /
*DELIMITER :
*BUS_DELIMITER []
*T_UNIT 1 NS
*C_UNIT 1 PF
*R_UNIT 1 OHM
*L_UNIT 1 HENRY

*NAME_MAP
*3 clock
*4 count[0]
*5 count[10]
*6 count[11]
*7 count[12]
*8 count[13]
*9 count[14]
*10 count[15]
*11 count[1]
*12 count[2]
*13 count[3]
*14 count[4]
*15 count[5]
*16 count[6]
*17 count[7]
*18 count[8]
*19 count[9]
*20 count_en
*21 count_tc
*22 reset
*23 _000_
*24 _001_
*25 _002_
*26 _003_
*27 _004_
*28 _005_
*29 _006_
*30 _007_
*31 _008_
*32 _009_
*33 _010_
*34 _011_
*35 _012_
*36 _013_
*37 _014_
*38 _015_
*39 _016_
*40 _017_
*41 _018_
*42 _019_
*43 _020_
*44 _021_
*45 _022_
*46 _023_
*47 _024_
*48 _025_
*49 _026_
*50 _027_
*51 _028_
*52 _029_
*53 _030_
*54 _031_
*55 _032_
*56 _033_
*57 _034_
*58 _035_
*59 _036_
*60 _037_
*61 _038_
*62 _039_
*63 _040_
*64 _041_
*65 _042_
*66 _043_
*67 _044_
*68 _045_
*69 _046_
*70 _047_
*71 _048_
*72 _049_
*73 _050_
*74 _051_
*75 _052_
*76 _053_
*77 _054_
*78 _055_
*79 _056_
*80 _057_
*81 _058_
*82 _059_
*83 _060_
*84 _061_
*85 _062_
*86 net1
*87 net10
*88 net11
*89 net12
*90 net13
*91 net14
*92 net15
*93 net16
*94 net17
*95 net18
*96 net19
*97 net2
*98 net20
*99 net3
*100 net4
*101 net5
*102 net6
*103 net7
*104 net8
*105 net9
*106 FILLER_0_103
*107 FILLER_0_111
*108 FILLER_0_113
*109 FILLER_0_123
*110 FILLER_0_131
*111 FILLER_0_15
*112 FILLER_0_21
*113 FILLER_0_27
*114 FILLER_0_29
*115 FILLER_0_41
*116 FILLER_0_53
*117 FILLER_0_61
*118 FILLER_0_7
*119 FILLER_0_73
*120 FILLER_0_81
*121 FILLER_0_85
*122 FILLER_0_91
*123 FILLER_10_105
*124 FILLER_10_117
*125 FILLER_10_129
*126 FILLER_10_15
*127 FILLER_10_24
*128 FILLER_10_29
*129 FILLER_10_3
*130 FILLER_10_49
*131 FILLER_10_69
*132 FILLER_10_80
*133 FILLER_10_85
*134 FILLER_10_93
*135 FILLER_11_111
*136 FILLER_11_113
*137 FILLER_11_125
*138 FILLER_11_133
*139 FILLER_11_15
*140 FILLER_11_23
*141 FILLER_11_3
*142 FILLER_11_34
*143 FILLER_11_43
*144 FILLER_11_51
*145 FILLER_11_55
*146 FILLER_11_67
*147 FILLER_11_71
*148 FILLER_11_79
*149 FILLER_11_87
*150 FILLER_11_99
*151 FILLER_12_10
*152 FILLER_12_108
*153 FILLER_12_120
*154 FILLER_12_132
*155 FILLER_12_19
*156 FILLER_12_27
*157 FILLER_12_3
*158 FILLER_12_34
*159 FILLER_12_42
*160 FILLER_12_54
*161 FILLER_12_66
*162 FILLER_12_78
*163 FILLER_12_89
*164 FILLER_12_96
*165 FILLER_13_105
*166 FILLER_13_111
*167 FILLER_13_113
*168 FILLER_13_125
*169 FILLER_13_133
*170 FILLER_13_20
*171 FILLER_13_3
*172 FILLER_13_30
*173 FILLER_13_38
*174 FILLER_13_44
*175 FILLER_13_52
*176 FILLER_13_64
*177 FILLER_13_78
*178 FILLER_13_85
*179 FILLER_14_101
*180 FILLER_14_113
*181 FILLER_14_125
*182 FILLER_14_133
*183 FILLER_14_15
*184 FILLER_14_23
*185 FILLER_14_27
*186 FILLER_14_29
*187 FILLER_14_3
*188 FILLER_14_53
*189 FILLER_14_57
*190 FILLER_14_61
*191 FILLER_14_73
*192 FILLER_14_80
*193 FILLER_15_110
*194 FILLER_15_113
*195 FILLER_15_125
*196 FILLER_15_131
*197 FILLER_15_24
*198 FILLER_15_3
*199 FILLER_15_44
*200 FILLER_15_48
*201 FILLER_15_52
*202 FILLER_15_57
*203 FILLER_15_65
*204 FILLER_15_74
*205 FILLER_15_88
*206 FILLER_15_98
*207 FILLER_16_109
*208 FILLER_16_121
*209 FILLER_16_133
*210 FILLER_16_18
*211 FILLER_16_26
*212 FILLER_16_29
*213 FILLER_16_37
*214 FILLER_16_44
*215 FILLER_16_6
*216 FILLER_16_68
*217 FILLER_16_72
*218 FILLER_16_80
*219 FILLER_16_85
*220 FILLER_16_97
*221 FILLER_17_101
*222 FILLER_17_109
*223 FILLER_17_113
*224 FILLER_17_125
*225 FILLER_17_133
*226 FILLER_17_15
*227 FILLER_17_27
*228 FILLER_17_3
*229 FILLER_17_39
*230 FILLER_17_51
*231 FILLER_17_55
*232 FILLER_17_57
*233 FILLER_17_65
*234 FILLER_17_77
*235 FILLER_17_89
*236 FILLER_18_109
*237 FILLER_18_121
*238 FILLER_18_133
*239 FILLER_18_15
*240 FILLER_18_27
*241 FILLER_18_29
*242 FILLER_18_3
*243 FILLER_18_41
*244 FILLER_18_53
*245 FILLER_18_65
*246 FILLER_18_77
*247 FILLER_18_83
*248 FILLER_18_85
*249 FILLER_18_97
*250 FILLER_19_105
*251 FILLER_19_111
*252 FILLER_19_113
*253 FILLER_19_125
*254 FILLER_19_133
*255 FILLER_19_15
*256 FILLER_19_27
*257 FILLER_19_3
*258 FILLER_19_39
*259 FILLER_19_51
*260 FILLER_19_55
*261 FILLER_19_57
*262 FILLER_19_69
*263 FILLER_19_81
*264 FILLER_19_93
*265 FILLER_1_105
*266 FILLER_1_111
*267 FILLER_1_113
*268 FILLER_1_125
*269 FILLER_1_133
*270 FILLER_1_19
*271 FILLER_1_31
*272 FILLER_1_43
*273 FILLER_1_55
*274 FILLER_1_57
*275 FILLER_1_69
*276 FILLER_1_7
*277 FILLER_1_81
*278 FILLER_1_93
*279 FILLER_20_109
*280 FILLER_20_121
*281 FILLER_20_133
*282 FILLER_20_19
*283 FILLER_20_27
*284 FILLER_20_29
*285 FILLER_20_41
*286 FILLER_20_53
*287 FILLER_20_65
*288 FILLER_20_7
*289 FILLER_20_77
*290 FILLER_20_83
*291 FILLER_20_85
*292 FILLER_20_97
*293 FILLER_21_105
*294 FILLER_21_111
*295 FILLER_21_113
*296 FILLER_21_125
*297 FILLER_21_131
*298 FILLER_21_15
*299 FILLER_21_27
*300 FILLER_21_3
*301 FILLER_21_39
*302 FILLER_21_51
*303 FILLER_21_55
*304 FILLER_21_57
*305 FILLER_21_69
*306 FILLER_21_81
*307 FILLER_21_93
*308 FILLER_22_103
*309 FILLER_22_111
*310 FILLER_22_113
*311 FILLER_22_123
*312 FILLER_22_131
*313 FILLER_22_15
*314 FILLER_22_21
*315 FILLER_22_27
*316 FILLER_22_29
*317 FILLER_22_41
*318 FILLER_22_53
*319 FILLER_22_61
*320 FILLER_22_7
*321 FILLER_22_73
*322 FILLER_22_81
*323 FILLER_22_85
*324 FILLER_22_91
*325 FILLER_2_109
*326 FILLER_2_121
*327 FILLER_2_131
*328 FILLER_2_15
*329 FILLER_2_27
*330 FILLER_2_29
*331 FILLER_2_3
*332 FILLER_2_41
*333 FILLER_2_53
*334 FILLER_2_65
*335 FILLER_2_77
*336 FILLER_2_83
*337 FILLER_2_85
*338 FILLER_2_97
*339 FILLER_3_105
*340 FILLER_3_111
*341 FILLER_3_113
*342 FILLER_3_125
*343 FILLER_3_133
*344 FILLER_3_3
*345 FILLER_3_31
*346 FILLER_3_43
*347 FILLER_3_55
*348 FILLER_3_57
*349 FILLER_3_69
*350 FILLER_3_81
*351 FILLER_3_93
*352 FILLER_4_109
*353 FILLER_4_121
*354 FILLER_4_133
*355 FILLER_4_15
*356 FILLER_4_27
*357 FILLER_4_3
*358 FILLER_4_37
*359 FILLER_4_44
*360 FILLER_4_56
*361 FILLER_4_68
*362 FILLER_4_80
*363 FILLER_4_85
*364 FILLER_4_97
*365 FILLER_5_101
*366 FILLER_5_109
*367 FILLER_5_113
*368 FILLER_5_125
*369 FILLER_5_133
*370 FILLER_5_15
*371 FILLER_5_3
*372 FILLER_5_31
*373 FILLER_5_52
*374 FILLER_5_57
*375 FILLER_5_69
*376 FILLER_5_73
*377 FILLER_5_77
*378 FILLER_5_89
*379 FILLER_6_100
*380 FILLER_6_112
*381 FILLER_6_124
*382 FILLER_6_132
*383 FILLER_6_14
*384 FILLER_6_24
*385 FILLER_6_36
*386 FILLER_6_47
*387 FILLER_6_59
*388 FILLER_6_7
*389 FILLER_6_79
*390 FILLER_6_83
*391 FILLER_6_88
*392 FILLER_7_109
*393 FILLER_7_113
*394 FILLER_7_125
*395 FILLER_7_133
*396 FILLER_7_20
*397 FILLER_7_3
*398 FILLER_7_38
*399 FILLER_7_46
*400 FILLER_7_54
*401 FILLER_7_63
*402 FILLER_7_83
*403 FILLER_7_97
*404 FILLER_8_101
*405 FILLER_8_113
*406 FILLER_8_125
*407 FILLER_8_133
*408 FILLER_8_20
*409 FILLER_8_3
*410 FILLER_8_36
*411 FILLER_8_45
*412 FILLER_8_53
*413 FILLER_8_59
*414 FILLER_8_68
*415 FILLER_8_79
*416 FILLER_8_83
*417 FILLER_9_106
*418 FILLER_9_113
*419 FILLER_9_13
*420 FILLER_9_131
*421 FILLER_9_23
*422 FILLER_9_3
*423 FILLER_9_31
*424 FILLER_9_42
*425 FILLER_9_52
*426 FILLER_9_60
*427 FILLER_9_64
*428 FILLER_9_75
*429 FILLER_9_86
*430 FILLER_9_94
*431 PHY_0
*432 PHY_1
*433 PHY_10
*434 PHY_11
*435 PHY_12
*436 PHY_13
*437 PHY_14
*438 PHY_15
*439 PHY_16
*440 PHY_17
*441 PHY_18
*442 PHY_19
*443 PHY_2
*444 PHY_20
*445 PHY_21
*446 PHY_22
*447 PHY_23
*448 PHY_24
*449 PHY_25
*450 PHY_26
*451 PHY_27
*452 PHY_28
*453 PHY_29
*454 PHY_3
*455 PHY_30
*456 PHY_31
*457 PHY_32
*458 PHY_33
*459 PHY_34
*460 PHY_35
*461 PHY_36
*462 PHY_37
*463 PHY_38
*464 PHY_39
*465 PHY_4
*466 PHY_40
*467 PHY_41
*468 PHY_42
*469 PHY_43
*470 PHY_44
*471 PHY_45
*472 PHY_5
*473 PHY_6
*474 PHY_7
*475 PHY_8
*476 PHY_9
*477 TAP_46
*478 TAP_47
*479 TAP_48
*480 TAP_49
*481 TAP_50
*482 TAP_51
*483 TAP_52
*484 TAP_53
*485 TAP_54
*486 TAP_55
*487 TAP_56
*488 TAP_57
*489 TAP_58
*490 TAP_59
*491 TAP_60
*492 TAP_61
*493 TAP_62
*494 TAP_63
*495 TAP_64
*496 TAP_65
*497 TAP_66
*498 TAP_67
*499 TAP_68
*500 TAP_69
*501 TAP_70
*502 TAP_71
*503 TAP_72
*504 TAP_73
*505 TAP_74
*506 TAP_75
*507 TAP_76
*508 TAP_77
*509 TAP_78
*510 TAP_79
*511 TAP_80
*512 TAP_81
*513 TAP_82
*514 TAP_83
*515 TAP_84
*516 TAP_85
*517 TAP_86
*518 TAP_87
*519 TAP_88
*520 TAP_89
*521 TAP_90
*522 TAP_91
*523 TAP_92
*524 TAP_93
*525 TAP_94
*526 TAP_95
*527 _063_
*528 _064_
*529 _065_
*530 _066_
*531 _067_
*532 _068_
*533 _069_
*534 _070_
*535 _071_
*536 _072_
*537 _073_
*538 _074_
*539 _075_
*540 _076_
*541 _077_
*542 _078_
*543 _079_
*544 _080_
*545 _081_
*546 _082_
*547 _083_
*548 _084_
*549 _085_
*550 _086_
*551 _087_
*552 _088_
*553 _089_
*554 _090_
*555 _091_
*556 _092_
*557 _093_
*558 _094_
*559 _095_
*560 _096_
*561 _097_
*562 _098_
*563 _099_
*564 _100_
*565 _101_
*566 _102_
*567 _103_
*568 _104_
*569 _105_
*570 _106_
*571 _107_
*572 _108_
*573 _109_
*574 _110_
*575 _111_
*576 _112_
*577 _113_
*578 _114_
*579 _115_
*580 _116_
*581 _117_
*582 _118_
*583 _119_
*584 _120_
*585 _121_
*586 _122_
*587 _123_
*588 _124_
*589 _125_
*590 _126_
*591 _127_
*592 _128_
*593 _129_
*594 _130_
*595 _131_
*596 _132_
*597 _133_
*598 _134_
*599 _135_
*600 _136_
*601 _137_
*602 _138_
*603 _139_
*604 _140_
*605 _141_
*606 _142_
*607 input1
*608 input2
*609 input3
*610 output10
*611 output11
*612 output12
*613 output13
*614 output14
*615 output15
*616 output16
*617 output17
*618 output18
*619 output19
*620 output20
*621 output4
*622 output5
*623 output6
*624 output7
*625 output8
*626 output9

*PORTS
clock I
count[0] O
count[10] O
count[11] O
count[12] O
count[13] O
count[14] O
count[15] O
count[1] O
count[2] O
count[3] O
count[4] O
count[5] O
count[6] O
count[7] O
count[8] O
count[9] O
count_en I
count_tc O
reset I

*D_NET *3 0.000592731
*CONN
*P clock I
*I *607:A I *D sky130_fd_sc_hd__buf_4
*CAP
1 clock 0.000296365
2 *607:A 0.000296365
*RES
1 clock *607:A 18.4776 
*END

*D_NET *4 0.00192239
*CONN
*P count[0] O
*I *621:X O *D sky130_fd_sc_hd__buf_2
*CAP
1 count[0] 0.000961197
2 *621:X 0.000961197
*RES
1 *621:X count[0] 36.0997 
*END

*D_NET *5 0.000993155
*CONN
*P count[10] O
*I *622:X O *D sky130_fd_sc_hd__buf_2
*CAP
1 count[10] 0.000496578
2 *622:X 0.000496578
*RES
1 *622:X count[10] 26.1168 
*END

*D_NET *6 0.00126345
*CONN
*P count[11] O
*I *623:X O *D sky130_fd_sc_hd__buf_2
*CAP
1 count[11] 0.000631726
2 *623:X 0.000631726
*RES
1 *623:X count[11] 27.2288 
*END

*D_NET *7 0.000712264
*CONN
*P count[12] O
*I *624:X O *D sky130_fd_sc_hd__buf_2
*CAP
1 count[12] 0.000356132
2 *624:X 0.000356132
3 count[12] *100:66 0
*RES
1 *624:X count[12] 18.5541 
*END

*D_NET *8 0.00284246
*CONN
*P count[13] O
*I *625:X O *D sky130_fd_sc_hd__buf_2
*CAP
1 count[13] 0.00124538
2 *625:X 0.00124538
3 count[13] count[3] 0.000193451
4 count[13] *613:A 5.92192e-05
5 count[13] *104:50 9.9028e-05
*RES
1 *625:X count[13] 40.614 
*END

*D_NET *9 0.000518451
*CONN
*P count[14] O
*I *626:X O *D sky130_fd_sc_hd__buf_2
*CAP
1 count[14] 0.000259226
2 *626:X 0.000259226
*RES
1 *626:X count[14] 19.0786 
*END

*D_NET *10 0.00148144
*CONN
*P count[15] O
*I *610:X O *D sky130_fd_sc_hd__buf_2
*CAP
1 count[15] 0.000705263
2 *610:X 0.000705263
3 count[15] *610:A 7.09148e-05
*RES
1 *610:X count[15] 29.4444 
*END

*D_NET *11 0.00150184
*CONN
*P count[1] O
*I *611:X O *D sky130_fd_sc_hd__buf_2
*CAP
1 count[1] 0.000750918
2 *611:X 0.000750918
*RES
1 *611:X count[1] 32.2203 
*END

*D_NET *12 0.000900965
*CONN
*P count[2] O
*I *612:X O *D sky130_fd_sc_hd__buf_2
*CAP
1 count[2] 0.000450483
2 *612:X 0.000450483
*RES
1 *612:X count[2] 26.3044 
*END

*D_NET *13 0.000722215
*CONN
*P count[3] O
*I *613:X O *D sky130_fd_sc_hd__buf_2
*CAP
1 count[3] 0.000264382
2 *613:X 0.000264382
3 count[13] count[3] 0.000193451
*RES
1 *613:X count[3] 23.1778 
*END

*D_NET *14 0.000883819
*CONN
*P count[4] O
*I *614:X O *D sky130_fd_sc_hd__buf_2
*CAP
1 count[4] 0.00044191
2 *614:X 0.00044191
*RES
1 *614:X count[4] 24.4558 
*END

*D_NET *15 0.000469277
*CONN
*P count[5] O
*I *615:X O *D sky130_fd_sc_hd__buf_2
*CAP
1 count[5] 0.00023107
2 *615:X 0.00023107
3 count[5] *88:14 7.13655e-06
*RES
1 *615:X count[5] 18.2481 
*END

*D_NET *16 0.000726277
*CONN
*P count[6] O
*I *616:X O *D sky130_fd_sc_hd__buf_2
*CAP
1 count[6] 0.000363139
2 *616:X 0.000363139
*RES
1 *616:X count[6] 19.3846 
*END

*D_NET *17 0.000637347
*CONN
*P count[7] O
*I *617:X O *D sky130_fd_sc_hd__buf_2
*CAP
1 count[7] 0.000294864
2 *617:X 0.000294864
3 count[7] *88:14 4.76198e-05
*RES
1 *617:X count[7] 19.9092 
*END

*D_NET *18 0.000807372
*CONN
*P count[8] O
*I *618:X O *D sky130_fd_sc_hd__buf_2
*CAP
1 count[8] 0.000403686
2 *618:X 0.000403686
*RES
1 *618:X count[8] 24.8388 
*END

*D_NET *19 0.000972312
*CONN
*P count[9] O
*I *619:X O *D sky130_fd_sc_hd__buf_2
*CAP
1 count[9] 0.000470407
2 *619:X 0.000470407
3 count[9] *619:A 3.14978e-05
*RES
1 *619:X count[9] 25.0104 
*END

*D_NET *20 0.00114166
*CONN
*P count_en I
*I *608:A I *D sky130_fd_sc_hd__clkbuf_1
*CAP
1 count_en 0.000570828
2 *608:A 0.000570828
*RES
1 count_en *608:A 27.3072 
*END

*D_NET *21 0.00123783
*CONN
*P count_tc O
*I *620:X O *D sky130_fd_sc_hd__buf_2
*CAP
1 count_tc 0.000618917
2 *620:X 0.000618917
*RES
1 *620:X count_tc 29.0447 
*END

*D_NET *22 0.000768039
*CONN
*P reset I
*I *609:A I *D sky130_fd_sc_hd__dlymetal6s2s_1
*CAP
1 reset 0.000384019
2 *609:A 0.000384019
3 *609:A *616:A 0
*RES
1 reset *609:A 20.9691 
*END

*D_NET *23 0.000363961
*CONN
*I *591:D I *D sky130_fd_sc_hd__dfxtp_2
*I *539:X O *D sky130_fd_sc_hd__o21a_1
*CAP
1 *591:D 0.0001726
2 *539:X 0.0001726
3 *591:D *591:CLK 1.87611e-05
*RES
1 *539:X *591:D 31.1072 
*END

*D_NET *24 0.000840549
*CONN
*I *592:D I *D sky130_fd_sc_hd__dfxtp_1
*I *542:Y O *D sky130_fd_sc_hd__nor3_1
*CAP
1 *592:D 0.00038628
2 *542:Y 0.00038628
3 *592:D *48:19 0
4 *592:D *88:10 0
5 *592:D *88:14 0
6 *592:D *97:12 6.79889e-05
*RES
1 *542:Y *592:D 36.4789 
*END

*D_NET *25 0.00070155
*CONN
*I *593:D I *D sky130_fd_sc_hd__dfxtp_1
*I *545:X O *D sky130_fd_sc_hd__o21a_1
*CAP
1 *593:D 0.00028727
2 *545:X 0.00028727
3 *593:D *592:CLK 0
4 *593:D *86:94 0.000101587
5 *593:D *89:8 0
6 *593:D *89:13 0
7 *593:D *100:59 2.54227e-05
*RES
1 *545:X *593:D 34.6402 
*END

*D_NET *26 0.000782437
*CONN
*I *594:D I *D sky130_fd_sc_hd__dfxtp_1
*I *548:Y O *D sky130_fd_sc_hd__nor3_1
*CAP
1 *594:D 0.000143253
2 *548:Y 0.000143253
3 *594:D *546:B 0.000299812
4 *594:D *548:A 2.69064e-05
5 *594:D *548:C 2.22788e-05
6 *594:D *594:CLK 0.000146934
*RES
1 *548:Y *594:D 32.6398 
*END

*D_NET *27 0.00134016
*CONN
*I *595:D I *D sky130_fd_sc_hd__dfxtp_1
*I *552:X O *D sky130_fd_sc_hd__o21a_1
*CAP
1 *595:D 0.000394077
2 *552:X 0.000394077
3 *595:D *552:A1 0
4 *595:D *552:B1 0
5 *595:D *561:C_N 3.90891e-05
6 *595:D *86:68 0.000512917
*RES
1 *552:X *595:D 38.4214 
*END

*D_NET *28 0.000269036
*CONN
*I *596:D I *D sky130_fd_sc_hd__dfxtp_1
*I *555:X O *D sky130_fd_sc_hd__o21ba_1
*CAP
1 *596:D 0.000134518
2 *555:X 0.000134518
*RES
1 *555:X *596:D 30.4214 
*END

*D_NET *29 0.000564453
*CONN
*I *597:D I *D sky130_fd_sc_hd__dfxtp_2
*I *558:Y O *D sky130_fd_sc_hd__nor2_1
*CAP
1 *597:D 0.000192094
2 *558:Y 0.000192094
3 *597:D *555:A2 7.19887e-05
4 *597:D *558:B 4.15008e-05
5 *597:D *596:CLK 4.80148e-05
6 *597:D *86:47 1.87611e-05
*RES
1 *558:Y *597:D 32.2164 
*END

*D_NET *30 0.000327017
*CONN
*I *598:D I *D sky130_fd_sc_hd__dfxtp_1
*I *561:Y O *D sky130_fd_sc_hd__nor3b_1
*CAP
1 *598:D 8.54089e-05
2 *561:Y 8.54089e-05
3 *598:D *552:B1 0
4 *598:D *88:14 0.000156199
*RES
1 *561:Y *598:D 30.3838 
*END

*D_NET *31 0.000670881
*CONN
*I *599:D I *D sky130_fd_sc_hd__dfxtp_1
*I *564:X O *D sky130_fd_sc_hd__o21a_1
*CAP
1 *599:D 0.000113603
2 *564:X 0.000113603
3 *599:D *86:28 3.77659e-05
4 *599:D *86:29 0.000113968
5 *599:D *90:29 2.28468e-05
6 *599:D *95:11 0.000269095
*RES
1 *564:X *599:D 32.0852 
*END

*D_NET *32 0.000646002
*CONN
*I *600:D I *D sky130_fd_sc_hd__dfxtp_1
*I *567:X O *D sky130_fd_sc_hd__o21a_1
*CAP
1 *600:D 0.000247139
2 *567:X 0.000247139
3 *600:D *567:A2 6.92705e-05
4 *600:D *623:A 5.96936e-05
5 *600:D *86:21 2.27595e-05
*RES
1 *567:X *600:D 32.5962 
*END

*D_NET *33 0.00294204
*CONN
*I *601:D I *D sky130_fd_sc_hd__dfxtp_1
*I *570:Y O *D sky130_fd_sc_hd__nor2_1
*CAP
1 *601:D 0.000704225
2 *570:Y 0.000704225
3 *601:D *532:C 0.000444341
4 *601:D *569:B1 6.27782e-05
5 *601:D *570:A 0.000208626
6 *601:D *86:11 0.00054989
7 *601:D *86:16 0.000208627
8 *601:D *93:47 3.33532e-05
9 *601:D *101:5 2.59764e-05
*RES
1 *570:Y *601:D 48.5674 
*END

*D_NET *34 0.000644761
*CONN
*I *602:D I *D sky130_fd_sc_hd__dfxtp_1
*I *576:X O *D sky130_fd_sc_hd__clkbuf_1
*CAP
1 *602:D 0.00021335
2 *576:X 0.00021335
3 *602:D *574:B1 0.000138346
4 *602:D *576:A 6.67812e-05
5 *602:D *86:21 1.29348e-05
*RES
1 *576:X *602:D 33.5366 
*END

*D_NET *35 0.000796193
*CONN
*I *603:D I *D sky130_fd_sc_hd__dfxtp_1
*I *580:Y O *D sky130_fd_sc_hd__a21oi_1
*CAP
1 *603:D 0.00010284
2 *580:Y 0.00010284
3 *603:D *603:CLK 0.000179286
4 *603:D *86:162 0.000122083
5 *603:D *101:44 0.000289145
*RES
1 *580:Y *603:D 32.8754 
*END

*D_NET *36 0.000384211
*CONN
*I *604:D I *D sky130_fd_sc_hd__dfxtp_1
*I *584:X O *D sky130_fd_sc_hd__clkbuf_1
*CAP
1 *604:D 0.000171111
2 *584:X 0.000171111
3 *604:D *101:44 3.88002e-05
4 *604:D *104:11 3.18826e-06
*RES
1 *584:X *604:D 31.1072 
*END

*D_NET *37 0.000899405
*CONN
*I *605:D I *D sky130_fd_sc_hd__dfxtp_1
*I *588:X O *D sky130_fd_sc_hd__clkbuf_1
*CAP
1 *605:D 0.0002304
2 *588:X 0.0002304
3 *605:D *587:A_N 0.000276611
4 *605:D *587:B 0
5 *605:D *45:12 0.000161994
*RES
1 *588:X *605:D 34.5392 
*END

*D_NET *38 0.000764245
*CONN
*I *606:D I *D sky130_fd_sc_hd__dfxtp_1
*I *590:Y O *D sky130_fd_sc_hd__nor3b_1
*CAP
1 *606:D 0.000272129
2 *590:Y 0.000272129
3 *606:D *590:A 8.36973e-05
4 *606:D *606:CLK 2.54559e-05
5 *606:D *612:A 0
6 *606:D *48:11 0.000110833
7 *606:D *89:8 0
*RES
1 *590:Y *606:D 34.6402 
*END

*D_NET *39 0.00420087
*CONN
*I *540:A I *D sky130_fd_sc_hd__dlymetal6s2s_1
*I *530:B I *D sky130_fd_sc_hd__and4_1
*I *549:B I *D sky130_fd_sc_hd__and3_1
*I *546:A I *D sky130_fd_sc_hd__and2_1
*I *527:X O *D sky130_fd_sc_hd__and3_1
*CAP
1 *540:A 0
2 *530:B 0.000125389
3 *549:B 0.000474663
4 *546:A 0.000174749
5 *527:X 5.39827e-05
6 *39:27 0.000927251
7 *39:18 0.000604511
8 *39:5 0.000506045
9 *530:B *548:C 6.50727e-05
10 *530:B *561:B 7.00923e-05
11 *530:B *564:A2 0.000103123
12 *530:B *42:8 8.38894e-05
13 *546:A *48:19 4.0508e-05
14 *546:A *48:24 0
15 *549:B *560:A1 8.81479e-05
16 *549:B *560:A2 7.34948e-06
17 *549:B *560:A3 5.03013e-06
18 *549:B *560:B1 6.50727e-05
19 *549:B *41:12 0
20 *549:B *63:10 2.22198e-05
21 *39:27 *548:A 5.08824e-05
22 *39:27 *548:B 0.000224395
23 *39:27 *548:C 0.000118166
24 *39:27 *552:A1 8.03393e-06
25 *39:27 *561:B 0.000382292
*RES
1 *527:X *39:5 9.97254 
2 *39:5 *546:A 23.8184 
3 *39:5 *39:18 9.68906 
4 *39:18 *39:27 16.6851 
5 *39:27 *549:B 26.2112 
6 *39:27 *530:B 13.8789 
7 *39:18 *540:A 13.7491 
*END

*D_NET *40 0.00465781
*CONN
*I *559:B I *D sky130_fd_sc_hd__and3_1
*I *546:B I *D sky130_fd_sc_hd__and2_1
*I *530:C I *D sky130_fd_sc_hd__and4_1
*I *549:C I *D sky130_fd_sc_hd__and3_1
*I *528:X O *D sky130_fd_sc_hd__and2_1
*CAP
1 *559:B 0.00043087
2 *546:B 0.000486667
3 *530:C 0
4 *549:C 0.000142302
5 *528:X 0
6 *40:8 0.000187273
7 *40:6 0.000596304
8 *40:5 0.000495536
9 *546:B *548:A 0.000316228
10 *546:B *594:CLK 4.39413e-05
11 *549:C *560:A1 0.000188417
12 *549:C *41:12 0.000229462
13 *549:C *56:5 0.000109421
14 *549:C *86:40 0.000235976
15 *559:B *537:A 8.55796e-05
16 *559:B *559:C 0.000249037
17 *559:B *47:16 5.03545e-06
18 *559:B *48:8 1.77537e-06
19 *559:B *86:87 0
20 *559:B *89:13 0
21 *40:6 *559:C 0.000190306
22 *40:6 *47:16 6.4068e-05
23 *40:6 *86:40 5.56367e-05
24 *40:8 *559:C 7.50722e-05
25 *40:8 *41:12 4.70104e-05
26 *40:8 *86:40 0.000122083
27 *594:D *546:B 0.000299812
*RES
1 *528:X *40:5 13.7491 
2 *40:5 *40:6 3.493 
3 *40:6 *40:8 2.24725 
4 *40:8 *549:C 20.267 
5 *40:8 *530:C 13.7491 
6 *40:6 *546:B 24.5036 
7 *40:5 *559:B 23.3694 
*END

*D_NET *41 0.00296069
*CONN
*I *559:C I *D sky130_fd_sc_hd__and3_1
*I *530:D I *D sky130_fd_sc_hd__and4_1
*I *529:X O *D sky130_fd_sc_hd__and4_1
*CAP
1 *559:C 0.0003569
2 *530:D 0
3 *529:X 0.000476552
4 *41:12 0.000833451
5 *559:C *63:10 0.00016712
6 *559:C *89:13 0
7 *41:12 *529:B 6.50586e-05
8 *41:12 *550:A 0.000116652
9 *41:12 *560:B1 7.39895e-06
10 *41:12 *63:10 4.04597e-05
11 *41:12 *86:40 1.1031e-05
12 *41:12 *86:47 4.05978e-05
13 *41:12 *94:11 5.4585e-05
14 *549:B *41:12 0
15 *549:C *41:12 0.000229462
16 *559:B *559:C 0.000249037
17 *40:6 *559:C 0.000190306
18 *40:8 *559:C 7.50722e-05
19 *40:8 *41:12 4.70104e-05
*RES
1 *529:X *41:12 27.1744 
2 *41:12 *530:D 13.7491 
3 *41:12 *559:C 25.5287 
*END

*D_NET *42 0.00277638
*CONN
*I *571:A I *D sky130_fd_sc_hd__dlymetal6s2s_1
*I *531:A I *D sky130_fd_sc_hd__dlymetal6s2s_1
*I *530:X O *D sky130_fd_sc_hd__and4_1
*CAP
1 *571:A 9.33596e-05
2 *531:A 3.29888e-05
3 *530:X 0.00063105
4 *42:8 0.000757398
5 *531:A *47:13 2.16355e-05
6 *571:A *544:B1 0.00019985
7 *42:8 *530:A 0.000275943
8 *42:8 *544:B1 0.000206229
9 *42:8 *564:A2 8.90311e-06
10 *42:8 *564:B1 0.000134715
11 *42:8 *52:16 0.000118485
12 *42:8 *52:20 6.50727e-05
13 *42:8 *86:28 3.22726e-05
14 *42:8 *90:10 0
15 *42:8 *95:11 0.000114584
16 *530:B *42:8 8.38894e-05
*RES
1 *530:X *42:8 31.5491 
2 *42:8 *531:A 14.4725 
3 *42:8 *571:A 17.2421 
*END

*D_NET *43 0.00534353
*CONN
*I *534:B I *D sky130_fd_sc_hd__and4_1
*I *586:A3 I *D sky130_fd_sc_hd__a41o_1
*I *581:A3 I *D sky130_fd_sc_hd__a41o_1
*I *574:A3 I *D sky130_fd_sc_hd__a31o_1
*I *562:A I *D sky130_fd_sc_hd__dlymetal6s2s_1
*I *531:X O *D sky130_fd_sc_hd__dlymetal6s2s_1
*CAP
1 *534:B 0.000406205
2 *586:A3 4.51842e-05
3 *581:A3 6.19728e-05
4 *574:A3 6.22624e-05
5 *562:A 0
6 *531:X 0.000233884
7 *43:34 0.000589035
8 *43:23 0.000254662
9 *43:11 0.000383286
10 *43:7 0.000609951
11 *534:B *534:A 0.000109421
12 *534:B *534:C 0
13 *534:B *582:B1 2.67514e-05
14 *534:B *586:A4 3.90219e-05
15 *534:B *45:7 0.000303115
16 *534:B *76:24 2.95757e-05
17 *534:B *100:59 4.1292e-05
18 *534:B *104:19 1.55462e-05
19 *534:B *104:28 4.69124e-05
20 *574:A3 *568:A2 0.000153949
21 *574:A3 *67:18 0.000324166
22 *581:A3 *581:A4 1.41976e-05
23 *586:A3 *586:A2 6.08467e-05
24 *43:7 *47:13 0.000161423
25 *43:11 *568:A2 2.65831e-05
26 *43:11 *569:B1 0
27 *43:11 *575:C 0
28 *43:11 *579:A2 8.61152e-06
29 *43:11 *44:8 0.000351316
30 *43:11 *65:7 2.65667e-05
31 *43:11 *67:18 9.35753e-06
32 *43:23 *579:A1 0.000101177
33 *43:23 *579:A2 5.18062e-06
34 *43:23 *44:8 0.000130361
35 *43:23 *76:24 2.219e-05
36 *43:34 *586:A4 0.000139244
37 *43:34 *44:8 1.9511e-05
38 *43:34 *44:17 0.000172178
39 *43:34 *76:24 0.000358589
*RES
1 *531:X *43:7 20.5732 
2 *43:7 *43:11 12.593 
3 *43:11 *562:A 9.24915 
4 *43:11 *574:A3 13.3002 
5 *43:7 *43:23 2.6625 
6 *43:23 *581:A3 15.0513 
7 *43:23 *43:34 6.39977 
8 *43:34 *586:A3 14.4725 
9 *43:34 *534:B 24.4026 
*END

*D_NET *44 0.00532183
*CONN
*I *586:A4 I *D sky130_fd_sc_hd__a41o_1
*I *572:A I *D sky130_fd_sc_hd__dlymetal6s2s_1
*I *534:C I *D sky130_fd_sc_hd__and4_1
*I *581:A4 I *D sky130_fd_sc_hd__a41o_1
*I *532:X O *D sky130_fd_sc_hd__and3_1
*CAP
1 *586:A4 9.70419e-05
2 *572:A 0
3 *534:C 0.000380417
4 *581:A4 3.29002e-05
5 *532:X 0.00070891
6 *44:24 0.0004462
7 *44:17 0.000274251
8 *44:8 0.000853236
9 *534:C *585:B1 0.00016553
10 *534:C *586:B1 0.000230859
11 *534:C *588:A 0.000248481
12 *534:C *45:7 0.000205659
13 *534:C *45:12 0
14 *534:C *71:10 2.22198e-05
15 *534:C *72:7 0.000169728
16 *586:A4 *586:A1 6.08467e-05
17 *586:A4 *586:A2 6.08467e-05
18 *44:8 *532:C 0.000216458
19 *44:8 *567:A2 0
20 *44:8 *569:A3 6.45639e-05
21 *44:8 *570:B 1.39717e-06
22 *44:8 *65:38 0
23 *44:17 *71:10 0
24 *44:24 *585:B1 0.000114584
25 *44:24 *71:10 0
26 *44:24 *72:7 0.000101873
27 *534:B *534:C 0
28 *534:B *586:A4 3.90219e-05
29 *581:A3 *581:A4 1.41976e-05
30 *43:11 *44:8 0.000351316
31 *43:23 *44:8 0.000130361
32 *43:34 *586:A4 0.000139244
33 *43:34 *44:8 1.9511e-05
34 *43:34 *44:17 0.000172178
*RES
1 *532:X *44:8 30.4259 
2 *44:8 *581:A4 14.4725 
3 *44:8 *44:17 3.28538 
4 *44:17 *44:24 6.88941 
5 *44:24 *534:C 30.5297 
6 *44:24 *572:A 9.24915 
7 *44:17 *586:A4 18.1732 
*END

*D_NET *45 0.00290432
*CONN
*I *534:D I *D sky130_fd_sc_hd__and4_1
*I *589:A3 I *D sky130_fd_sc_hd__a31o_1
*I *585:A3 I *D sky130_fd_sc_hd__a31o_1
*I *533:X O *D sky130_fd_sc_hd__and3_1
*CAP
1 *534:D 0
2 *589:A3 0.000243375
3 *585:A3 4.31184e-05
4 *533:X 0.000152143
5 *45:12 0.000532868
6 *45:7 0.000398518
7 *585:A3 *587:A_N 2.22198e-05
8 *585:A3 *71:10 0
9 *589:A3 *544:B1 4.59075e-05
10 *589:A3 *589:A1 0.00030718
11 *589:A3 *589:A2 1.41291e-05
12 *589:A3 *589:B1 0.000118166
13 *45:7 *533:A 0.00016553
14 *45:7 *533:C 7.53439e-06
15 *45:7 *534:A 3.91078e-05
16 *45:7 *100:59 2.02621e-05
17 *45:12 *534:A 2.58757e-05
18 *45:12 *587:A_N 9.76162e-05
19 *45:12 *588:A 0
20 *534:B *45:7 0.000303115
21 *534:C *45:7 0.000205659
22 *534:C *45:12 0
23 *605:D *45:12 0.000161994
*RES
1 *533:X *45:7 15.8079 
2 *45:7 *45:12 12.0384 
3 *45:12 *585:A3 14.7506 
4 *45:12 *589:A3 21.1519 
5 *45:7 *534:D 9.24915 
*END

*D_NET *46 0.000584285
*CONN
*I *535:A I *D sky130_fd_sc_hd__clkbuf_1
*I *534:X O *D sky130_fd_sc_hd__and4_1
*CAP
1 *535:A 0.000133227
2 *534:X 0.000133227
3 *535:A *534:A 0.000305874
4 *535:A *100:59 1.1957e-05
*RES
1 *534:X *535:A 22.5493 
*END

*D_NET *47 0.00979794
*CONN
*I *569:B1 I *D sky130_fd_sc_hd__a31o_1
*I *579:B1 I *D sky130_fd_sc_hd__a31o_1
*I *537:A I *D sky130_fd_sc_hd__clkbuf_2
*I *557:B1 I *D sky130_fd_sc_hd__a31o_1
*I *554:B1 I *D sky130_fd_sc_hd__a21o_1
*I *536:X O *D sky130_fd_sc_hd__clkbuf_2
*CAP
1 *569:B1 0.000454192
2 *579:B1 2.12792e-05
3 *537:A 0.000157466
4 *557:B1 0.000214982
5 *554:B1 0.000443423
6 *536:X 7.83917e-05
7 *47:16 0.00113729
8 *47:13 0.00182639
9 *47:7 0.00136221
10 *47:5 0.000683464
11 *537:A *86:87 3.34557e-05
12 *554:B1 *529:D 0.000271058
13 *554:B1 *57:28 0.000623041
14 *554:B1 *59:33 7.50872e-05
15 *554:B1 *91:26 0.000216458
16 *554:B1 *94:11 0.000173163
17 *557:B1 *529:B 5.51483e-06
18 *557:B1 *557:A2 7.73257e-05
19 *557:B1 *57:28 4.33655e-05
20 *557:B1 *93:11 9.75148e-06
21 *569:B1 *532:C 2.88863e-05
22 *569:B1 *570:A 3.97355e-05
23 *569:B1 *574:B1 0
24 *569:B1 *575:B 0
25 *569:B1 *575:C 3.00073e-05
26 *569:B1 *67:18 0
27 *569:B1 *86:16 1.59362e-06
28 *569:B1 *86:162 0
29 *569:B1 *101:5 2.84758e-05
30 *47:5 *99:20 9.50664e-05
31 *47:7 *579:A1 1.83992e-05
32 *47:7 *99:20 5.04829e-06
33 *47:13 *548:C 0.0005083
34 *47:16 *549:A 1.90096e-05
35 *47:16 *57:10 5.69143e-05
36 *47:16 *86:40 0.000566685
37 *47:16 *86:47 9.19927e-05
38 *47:16 *86:87 0
39 *47:16 *95:11 0
40 *531:A *47:13 2.16355e-05
41 *559:B *537:A 8.55796e-05
42 *559:B *47:16 5.03545e-06
43 *601:D *569:B1 6.27782e-05
44 *40:6 *47:16 6.4068e-05
45 *43:7 *47:13 0.000161423
46 *43:11 *569:B1 0
*RES
1 *536:X *47:5 11.6364 
2 *47:5 *47:7 3.49641 
3 *47:7 *47:13 23.5494 
4 *47:13 *47:16 19.2048 
5 *47:16 *554:B1 30.5409 
6 *47:16 *557:B1 13.1796 
7 *47:13 *537:A 17.6574 
8 *47:7 *579:B1 9.82786 
9 *47:5 *569:B1 29.2489 
*END

*D_NET *48 0.00669828
*CONN
*I *590:A I *D sky130_fd_sc_hd__nor3b_1
*I *538:B1 I *D sky130_fd_sc_hd__a21oi_1
*I *542:A I *D sky130_fd_sc_hd__nor3_1
*I *548:A I *D sky130_fd_sc_hd__nor3_1
*I *561:A I *D sky130_fd_sc_hd__nor3b_1
*I *537:X O *D sky130_fd_sc_hd__clkbuf_2
*CAP
1 *590:A 0.00018438
2 *538:B1 0
3 *542:A 0
4 *548:A 0.000444539
5 *561:A 0.000108164
6 *537:X 0.00027451
7 *48:24 0.000826993
8 *48:19 0.000631465
9 *48:11 0.000863237
10 *48:8 0.000964952
11 *548:A *548:C 0
12 *548:A *54:10 0.000114594
13 *561:A *552:B1 3.67528e-06
14 *561:A *88:14 0
15 *590:A *590:C_N 0.000401961
16 *590:A *612:A 0
17 *590:A *89:8 0
18 *48:8 *590:C_N 0.00017419
19 *48:8 *86:87 5.01668e-05
20 *48:8 *89:8 0
21 *48:8 *89:13 0
22 *48:11 *538:A1 0.000114594
23 *48:11 *606:CLK 1.84016e-05
24 *48:11 *100:11 0.000168313
25 *48:11 *100:19 6.78364e-06
26 *48:19 *538:A1 0.000113968
27 *48:19 *542:B 4.23181e-05
28 *48:19 *592:CLK 6.80864e-05
29 *48:19 *100:30 0.000388247
30 *48:24 *542:B 3.25052e-05
31 *48:24 *542:C 7.14029e-05
32 *48:24 *88:14 0
33 *546:A *48:19 4.0508e-05
34 *546:A *48:24 0
35 *546:B *548:A 0.000316228
36 *559:B *48:8 1.77537e-06
37 *592:D *48:19 0
38 *594:D *548:A 2.69064e-05
39 *606:D *590:A 8.36973e-05
40 *606:D *48:11 0.000110833
41 *39:27 *548:A 5.08824e-05
*RES
1 *537:X *48:8 20.1812 
2 *48:8 *48:11 16.8701 
3 *48:11 *48:19 21.0019 
4 *48:19 *48:24 11.626 
5 *48:24 *561:A 16.4116 
6 *48:24 *548:A 34.5934 
7 *48:19 *542:A 9.24915 
8 *48:11 *538:B1 9.24915 
9 *48:8 *590:A 20.9794 
*END

*D_NET *49 0.000706558
*CONN
*I *539:B1 I *D sky130_fd_sc_hd__o21a_1
*I *538:Y O *D sky130_fd_sc_hd__a21oi_1
*CAP
1 *539:B1 0.00014934
2 *538:Y 0.00014934
3 *539:B1 *538:A1 0.000222688
4 *539:B1 *539:A2 6.73186e-05
5 *539:B1 *100:19 0.000117872
*RES
1 *538:Y *539:B1 24.4301 
*END

*D_NET *50 0.00444041
*CONN
*I *547:A2 I *D sky130_fd_sc_hd__a21oi_1
*I *544:A2 I *D sky130_fd_sc_hd__a21oi_1
*I *545:A2 I *D sky130_fd_sc_hd__o21a_1
*I *559:A I *D sky130_fd_sc_hd__and3_1
*I *542:B I *D sky130_fd_sc_hd__nor3_1
*I *540:X O *D sky130_fd_sc_hd__dlymetal6s2s_1
*CAP
1 *547:A2 0.000229449
2 *544:A2 0.000294339
3 *545:A2 0.000143989
4 *559:A 0
5 *542:B 0.000392585
6 *540:X 0
7 *50:25 0.000565062
8 *50:16 0.000260298
9 *50:13 0.000416057
10 *50:4 0.000445629
11 *544:A2 *544:B1 4.86132e-05
12 *544:A2 *545:B1 0.000132111
13 *545:A2 *545:A1 1.9965e-05
14 *545:A2 *545:B1 5.0715e-05
15 *547:A2 *528:A 0.000263694
16 *547:A2 *547:A1 0.000337318
17 *547:A2 *548:C 0.00041423
18 *547:A2 *89:13 0.00035153
19 *50:16 *89:13 0
20 *50:25 *89:13 0
21 *48:19 *542:B 4.23181e-05
22 *48:24 *542:B 3.25052e-05
*RES
1 *540:X *50:4 9.24915 
2 *50:4 *542:B 18.3157 
3 *50:4 *50:13 1.278 
4 *50:13 *50:16 7.57775 
5 *50:16 *559:A 13.7491 
6 *50:16 *50:25 7.57775 
7 *50:25 *545:A2 11.6364 
8 *50:25 *544:A2 15.5909 
9 *50:13 *547:A2 20.1483 
*END

*D_NET *51 0.000559405
*CONN
*I *542:C I *D sky130_fd_sc_hd__nor3_1
*I *541:Y O *D sky130_fd_sc_hd__a21oi_1
*CAP
1 *542:C 0.000180573
2 *541:Y 0.000180573
3 *542:C *527:B 5.20754e-07